Version 4
SHEET 1 1120 680
WIRE -560 -240 -976 -240
WIRE -352 -240 -560 -240
WIRE -176 -240 -352 -240
WIRE 128 -240 -96 -240
WIRE 304 -240 128 -240
WIRE -560 -224 -560 -240
WIRE -352 -224 -352 -240
WIRE -352 -96 -352 -160
WIRE -256 -96 -352 -96
WIRE -112 -96 -256 -96
WIRE -16 -96 -112 -96
WIRE 80 -96 48 -96
WIRE 128 -96 128 -240
WIRE -352 -80 -352 -96
WIRE -256 -80 -256 -96
WIRE -112 -80 -112 -96
WIRE -112 16 -112 0
WIRE -976 48 -976 -240
WIRE -560 48 -560 -160
WIRE -352 48 -352 0
WIRE -352 48 -560 48
WIRE -256 48 -256 0
WIRE -256 48 -352 48
WIRE 304 48 304 -240
WIRE -256 128 -256 48
WIRE -112 128 -112 96
WIRE -112 128 -256 128
WIRE -560 176 -560 128
WIRE 128 176 128 -32
WIRE 128 176 -560 176
WIRE 304 176 304 112
WIRE 304 176 128 176
WIRE -832 224 -896 224
WIRE -720 224 -752 224
WIRE 128 224 128 176
WIRE 128 224 -640 224
WIRE -976 288 -976 128
WIRE -896 304 -896 224
FLAG -976 288 0
FLAG -896 304 0
SYMBOL voltage -976 32 R0
WINDOW 123 24 124 Left 2
WINDOW 39 0 0 Left 0
WINDOW 3 -299 -41 Left 2
SYMATTR Value SINE(0 123 60 0 0 0)
SYMATTR InstName V1
SYMBOL ind -736 208 R90
WINDOW 0 5 56 VBottom 2
WINDOW 3 32 56 VTop 2
SYMATTR InstName L2
SYMATTR Value 10µ
SYMATTR SpiceLine Ipk=1.8
SYMBOL res -736 240 R270
WINDOW 0 32 56 VTop 2
WINDOW 3 0 56 VBottom 2
SYMATTR InstName R6
SYMATTR Value 30
SYMBOL res -544 144 R180
WINDOW 0 36 76 Left 2
WINDOW 3 36 40 Left 2
SYMATTR InstName R1
SYMATTR Value 2.4k
SYMBOL res -96 112 R180
WINDOW 0 -43 72 Left 2
WINDOW 3 -74 43 Left 2
SYMATTR InstName R2
SYMATTR Value 18.2k
SYMBOL res -96 16 R180
WINDOW 0 -36 69 Left 2
WINDOW 3 -84 42 Left 2
SYMATTR InstName R3
SYMATTR Value 270k
SYMBOL res -240 16 R180
WINDOW 0 -42 79 Left 2
WINDOW 3 -66 47 Left 2
SYMATTR InstName R4
SYMATTR Value 250k
SYMBOL cap -544 -160 R180
WINDOW 0 24 56 Left 2
WINDOW 3 24 8 Left 2
SYMATTR InstName C2
SYMATTR Value 100n
SYMBOL cap -336 -160 R180
WINDOW 0 24 56 Left 2
WINDOW 3 24 8 Left 2
SYMATTR InstName C3
SYMATTR Value 100n
SYMBOL cap 288 48 R0
SYMATTR InstName C1
SYMATTR Value 47n
SYMBOL ind -192 -224 R270
WINDOW 0 32 56 VTop 2
WINDOW 3 5 56 VBottom 2
SYMATTR InstName L1
SYMATTR Value 10µ
SYMBOL res -336 16 R180
WINDOW 0 36 76 Left 2
WINDOW 3 28 44 Left 1
SYMATTR InstName R5
SYMATTR Value {POT + 1m}
SYMATTR SpiceLine pwr=0.01
SYMBOL Misc\\TRIAC 96 -32 M180
WINDOW 3 48 72 Left 1
SYMATTR Value BTA16-600B
SYMATTR InstName U1
SYMBOL Misc\\DIAC 48 -128 R90
WINDOW 0 0 32 VBottom 2
WINDOW 3 64 32 VTop 2
SYMATTR InstName U2
SYMATTR Value DB3
TEXT 408 72 Left 2 !.tran 0 0.04 0.016 10u
TEXT 408 16 Left 2 !.inc STTRIAC.lib\n.inc STDIAC.lib
TEXT 408 -232 Left 2 ;DIAC: DB3\nVbo=13.6V\nIbo=10uA
TEXT 408 -96 Left 2 ;TRIAC: BTA16-600B\nIgt=100mA\nIh=50mA
TEXT 408 96 Left 2 ;.step dec param POT 100 250k 30
TEXT -808 160 Left 2 ;Motor
TEXT 8 240 Left 2 ;White Wire
TEXT -832 -256 Left 2 ;Black Wire
TEXT -1008 320 Left 2 ;GND
TEXT 416 168 Left 2 ;.four 50 I(V1)
TEXT 416 192 Left 2 !.meas R1_PWR PARAM 0.84*I(R1)*V(N007,N006)\n.meas R5_PWR PARAM 0.84*I(R5)*V(N006,N003)
TEXT 416 128 Left 2 !.step dec param POT 1 1000 10
RECTANGLE Normal -624 336 -928 176 1
